# Packages
 &PACKAGES
 uuseCAL         = .TRUE.,
 useEXF         = .TRUE.,
 useDiagnostics = .TRUE.,
# useDiagnostics_vec = .TRUE.,
 useKPP         = .TRUE.,
 useGCHEM       = .TRUE.,
 useOBCS        = .TRUE.,
 usePTRACERS    = .TRUE.,
 useSALT_PLUME  = .TRUE.,
 useSeaice      = .TRUE.,
 &